Version 4
SHEET 1 1316 680
WIRE -256 -240 -336 -240
WIRE 368 -240 -256 -240
WIRE -336 -128 -336 -176
WIRE -240 -128 -336 -128
WIRE -64 -128 -176 -128
WIRE 272 -128 -64 -128
WIRE -64 -96 -64 -128
WIRE 272 -96 272 -128
WIRE -176 -64 -176 -128
WIRE -336 -32 -336 -128
WIRE -336 -32 -512 -32
WIRE 368 0 368 -240
WIRE -512 16 -512 -32
WIRE -64 16 -64 -16
WIRE 320 16 -64 16
WIRE -64 64 -64 16
WIRE 32 64 -64 64
WIRE 272 64 272 -32
WIRE 272 64 112 64
WIRE 272 80 272 64
WIRE -512 160 -512 96
WIRE -256 160 -256 -176
WIRE -256 160 -512 160
WIRE -64 160 -64 144
WIRE 272 240 272 160
WIRE 272 240 -16 240
WIRE 368 240 368 96
WIRE 368 240 272 240
WIRE 368 256 368 240
WIRE -336 272 -336 -32
WIRE -256 272 -256 160
WIRE 368 272 368 256
WIRE -336 336 -400 336
WIRE -256 336 -336 336
WIRE -176 336 -176 0
WIRE -176 336 -256 336
WIRE -64 336 -64 256
WIRE -64 336 -176 336
WIRE 48 336 48 112
WIRE 48 336 -64 336
WIRE 272 336 272 320
WIRE 272 336 48 336
WIRE 368 336 272 336
FLAG -400 336 0
FLAG 96 112 VSW
FLAG 672 -80 VSW
FLAG 672 0 0
FLAG 368 240 VLOAD
SYMBOL AutoGenerated\\DMP2035U 320 96 M180
SYMATTR InstName U1
SYMBOL res -80 -112 R0
SYMATTR InstName R1
SYMATTR Value 10k
SYMBOL res 288 176 R180
WINDOW 0 36 76 Left 2
WINDOW 3 36 40 Left 2
SYMATTR InstName R3
SYMATTR Value 100K
SYMBOL cap 256 -96 R0
SYMATTR InstName C1
SYMATTR Value 100n
SYMBOL sw 16 64 R270
WINDOW 0 27 -6 VRight 2
WINDOW 3 26 93 VRight 2
SYMATTR InstName S1
SYMATTR Value MYSW
SYMBOL voltage 672 -96 R0
WINDOW 123 0 0 Left 2
WINDOW 39 0 0 Left 2
SYMATTR InstName V2
SYMATTR Value PULSE(0 5 0.5 1n 1n 0.5 5 3)
SYMBOL Parts_TCO\\FDV301N -16 160 M0
SYMATTR InstName U2
SYMBOL res -80 48 R0
SYMATTR InstName R5
SYMATTR Value 10K
SYMBOL res 256 224 R0
SYMATTR InstName R2
SYMATTR Value 10K
SYMBOL schottky -240 -112 R270
WINDOW 0 32 32 VTop 2
WINDOW 3 0 32 VBottom 2
SYMATTR InstName D2
SYMATTR Value BAT46WJ
SYMATTR Description Diode
SYMATTR Type diode
SYMBOL cap -192 -64 R0
SYMATTR InstName C2
SYMATTR Value 10µ
SYMBOL schottky -320 -176 R180
WINDOW 0 24 64 Left 2
WINDOW 3 24 0 Left 2
SYMATTR InstName D3
SYMATTR Value RB168L-60
SYMATTR Description Diode
SYMATTR Type diode
SYMBOL schottky -240 -176 R180
WINDOW 0 24 64 Left 2
WINDOW 3 24 0 Left 2
SYMATTR InstName D4
SYMATTR Value RB168L-60
SYMATTR Description Diode
SYMATTR Type diode
SYMBOL schottky -320 336 R180
WINDOW 0 24 64 Left 2
WINDOW 3 24 0 Left 2
SYMATTR InstName D5
SYMATTR Value RB168L-60
SYMATTR Description Diode
SYMATTR Type diode
SYMBOL schottky -240 336 R180
WINDOW 0 24 64 Left 2
WINDOW 3 24 0 Left 2
SYMATTR InstName D6
SYMATTR Value RB168L-60
SYMATTR Description Diode
SYMATTR Type diode
SYMBOL voltage -512 0 R0
WINDOW 123 0 0 Left 2
WINDOW 39 0 0 Left 2
SYMATTR InstName V1
SYMATTR Value SINE(0 3 100 0 0 0 10000)
SYMBOL res 352 240 R0
SYMATTR InstName R4
SYMATTR Value 10
TEXT -242 360 Left 2 !.tran 0 20 0 uic
TEXT 656 72 Left 2 !.model MYSW SW(Ron=1 Roff=10Meg Vt=.5 Vh=-.4)
